                                   MODFLOW 6
                U.S. GEOLOGICAL SURVEY MODULAR HYDROLOGIC MODEL
                            VERSION 6.4.2 06/28/2023

   MODFLOW 6 compiled Jun 28 2023 18:41:13 with Intel(R) Fortran Intel(R) 64
   Compiler Classic for applications running on Intel(R) 64, Version 2021.7.0
                             Build 20220726_000000

This software has been approved for release by the U.S. Geological 
Survey (USGS). Although the software has been subjected to rigorous 
review, the USGS reserves the right to update the software as needed 
pursuant to further analysis and review. No warranty, expressed or 
implied, is made by the USGS or the U.S. Government as to the 
functionality of the software and related material nor shall the 
fact of release constitute any such warranty. Furthermore, the 
software is released on condition that neither the USGS nor the U.S. 
Government shall be held liable for any damages resulting from its 
authorized or unauthorized use. Also refer to the USGS Water 
Resources Software User Rights Notice for complete use, copyright, 
and distribution information.


As a work of the United States Government, this USGS product is 
in the public domain within the United States. You can copy, 
modify, distribute, and perform the work, even for commercial 
purposes, all without asking permission. Additionally, USGS 
waives copyright and related rights in the work worldwide 
through CC0 1.0 Universal Public Domain Dedication 
(https://creativecommons.org/publicdomain/zero/1.0/).

The following GNU Lesser General Public License (LGPL) libraries
are used in this USGS product:

    SPARSKIT version 2.0
      ilut, luson, and qsplit 
      (https://www-users.cse.umn.edu/~saad/software/SPARSKIT/)

    RCM - Reverse Cuthill McKee Ordering
      (https://people.math.sc.edu/Burkardt/f_src/rcm/rcm.html)

    BLAS - Basic Linear Algebra Subprograms Level 1
      (https://people.math.sc.edu/Burkardt/f_src/blas1_d/blas1_d.html)

    SPARSEKIT - Sparse Matrix Utility Package
      amux, dperm, dvperm, rperm, and cperm
      (https://people.sc.fsu.edu/~jburkardt/f77_src/sparsekit/sparsekit.html)

The following BSD-3 License libraries are used in this USGS product:

    Modern Fortran DAG Library
      Copyright (c) 2018, Jacob Williams
      All rights reserved.
      (https://github.com/jacobwilliams/daglib)

MODFLOW 6 compiler options: /Isrc\libmf6core.a.p /Isrc /I..\src
/Isrc\libmf6_external.a.p /MTd /nologo /warn:general /warn:truncated_source
/stand:f08 /Zi /traceback /O2 /fpe:0 /heap-arrays:0 /traceback /fpp
/Qdiag-disable:7416 /Qdiag-disable:7025 /Qdiag-disable:5268
/Fdsrc\libmf6core.a.p\Utilities_compilerversion.F90.pdb
/module:src\libmf6core.a.p
/Fosrc/libmf6core.a.p/Utilities_compilerversion.F90.obj /c

System command used to initiate simulation:
mf6.exe

MODFLOW was compiled using uniform precision.

Real Variables
  KIND: 8
  TINY (smallest non-zero value):    2.225074-308
  HUGE (largest value):    1.797693+308
  PRECISION: 15
  SIZE IN BITS: 64

Integer Variables
  KIND: 4
  HUGE (largest value): 2147483647
  SIZE IN BITS: 32

Long Integer Variables
  KIND: 8
  HUGE (largest value): 9223372036854775807
  SIZE IN BITS: 64

Logical Variables
  KIND: 4
  SIZE IN BITS: 32
 

 OPENED mfsim.nam
 FILE TYPE:NAM   UNIT 1001   STATUS:OLD                 
 FORMAT:FORMATTED              ACCESS:SEQUENTIAL          
 ACTION:READ                

 # File generated by Flopy version 3.4.2 on 10/26/2023 at 06:03:34.

 OPENED flow.nam
 FILE TYPE:NAM   UNIT 1002   STATUS:OLD                 
 FORMAT:FORMATTED              ACCESS:SEQUENTIAL          
 ACTION:READ                

 # File generated by Flopy version 3.4.2 on 10/25/2023 at 17:08:51.
 #  OC6  flow.oc  oc

 OPENED flow.dis
 FILE TYPE:DIS6      UNIT 1003   STATUS:OLD                 
 FORMAT:FORMATTED              ACCESS:SEQUENTIAL          
 ACTION:READ                


 OPENED flow.npf
 FILE TYPE:NPF6      UNIT 1004   STATUS:OLD                 
 FORMAT:FORMATTED              ACCESS:SEQUENTIAL          
 ACTION:READ                


 OPENED flow.buy
 FILE TYPE:BUY6      UNIT 1005   STATUS:OLD                 
 FORMAT:FORMATTED              ACCESS:SEQUENTIAL          
 ACTION:READ                


 OPENED flow.sto
 FILE TYPE:STO6      UNIT 1006   STATUS:OLD                 
 FORMAT:FORMATTED              ACCESS:SEQUENTIAL          
 ACTION:READ                


 OPENED flow.ic
 FILE TYPE:IC6       UNIT 1007   STATUS:OLD                 
 FORMAT:FORMATTED              ACCESS:SEQUENTIAL          
 ACTION:READ                


 OPENED flow.obs
 FILE TYPE:OBS6      UNIT 1008   STATUS:OLD                 
 FORMAT:FORMATTED              ACCESS:SEQUENTIAL          
 ACTION:READ                


 OPENED flow.wel
 FILE TYPE:WEL6      UNIT 1009   STATUS:OLD                 
 FORMAT:FORMATTED              ACCESS:SEQUENTIAL          
 ACTION:READ                


 OPENED flow.ghb
 FILE TYPE:GHB6      UNIT 1010   STATUS:OLD                 
 FORMAT:FORMATTED              ACCESS:SEQUENTIAL          
 ACTION:READ                


 OPENED flow.rch
 FILE TYPE:RCH6      UNIT 1011   STATUS:OLD                 
 FORMAT:FORMATTED              ACCESS:SEQUENTIAL          
 ACTION:READ                

 # File generated by Flopy version 3.4.2 on 10/26/2023 at 06:03:34.
 # File generated by Flopy version 3.4.2 on 10/26/2023 at 06:03:34.
 #  alternative_cell_averaging AMT-LMK

 OPENED trans.nam
 FILE TYPE:NAM   UNIT 1109   STATUS:OLD                 
 FORMAT:FORMATTED              ACCESS:SEQUENTIAL          
 ACTION:READ                

 # File generated by Flopy version 3.4.2 on 10/25/2023 at 17:08:52.
 #  OC6  trans.oc  oc

 OPENED trans.dis
 FILE TYPE:DIS6      UNIT 1110   STATUS:OLD                 
 FORMAT:FORMATTED              ACCESS:SEQUENTIAL          
 ACTION:READ                


 OPENED trans.ic
 FILE TYPE:IC6       UNIT 1111   STATUS:OLD                 
 FORMAT:FORMATTED              ACCESS:SEQUENTIAL          
 ACTION:READ                


 OPENED trans.mst
 FILE TYPE:MST6      UNIT 1112   STATUS:OLD                 
 FORMAT:FORMATTED              ACCESS:SEQUENTIAL          
 ACTION:READ                


 OPENED trans.adv
 FILE TYPE:ADV6      UNIT 1113   STATUS:OLD                 
 FORMAT:FORMATTED              ACCESS:SEQUENTIAL          
 ACTION:READ                


 OPENED trans.dsp
 FILE TYPE:DSP6      UNIT 1114   STATUS:OLD                 
 FORMAT:FORMATTED              ACCESS:SEQUENTIAL          
 ACTION:READ                


 OPENED trans.ssm
 FILE TYPE:SSM6      UNIT 1115   STATUS:OLD                 
 FORMAT:FORMATTED              ACCESS:SEQUENTIAL          
 ACTION:READ                


 OPENED trans.obs
 FILE TYPE:OBS6      UNIT 1116   STATUS:OLD                 
 FORMAT:FORMATTED              ACCESS:SEQUENTIAL          
 ACTION:READ                

 # File generated by Flopy version 3.4.2 on 10/26/2023 at 06:03:35.
 # File generated by Flopy version 3.4.2 on 10/26/2023 at 06:03:35.

 READING SIMULATION OPTIONS
    MAXIMUM NUMBER OF ERRORS THAT WILL BE STORED IS 1000
 END OF SIMULATION OPTIONS

 READING SIMULATION TIMING

 OPENED flow.tdis
 FILE TYPE:TDIS   UNIT 1210   STATUS:OLD                 
 FORMAT:FORMATTED              ACCESS:SEQUENTIAL          
 ACTION:READ                


 TDIS -- TEMPORAL DISCRETIZATION PACKAGE,
 VERSION 1 : 11/13/2014 - INPUT READ FROM UNIT 1210
 # File generated by Flopy version 3.4.2 on 10/25/2023 at 17:08:51.
 PROCESSING TDIS OPTIONS
    SIMULATION TIME UNIT IS DAYS
 END OF TDIS OPTIONS
 PROCESSING TDIS DIMENSIONS
    1 STRESS PERIOD(S) IN SIMULATION
 END OF TDIS DIMENSIONS
 PROCESSING TDIS PERIODDATA


 STRESS PERIOD     LENGTH       TIME STEPS     MULTIPLIER FOR DELT
 ----------------------------------------------------------------------------
        1         36500.00         25                    1.000
 END OF TDIS PERIODDATA
 END OF SIMULATION TIMING

 READING SIMULATION MODELS
    GWF6 model 1 will be created
    GWT6 model 2 will be created
 END OF SIMULATION MODELS

 READING SIMULATION EXCHANGES
    GWF6-GWT6 exchange 1 will be created to connect model 1 with model 2
 END OF SIMULATION EXCHANGES

 READING SOLUTIONGROUP

 Creating solution: SLN_1           

 OPENED flow.ims
 FILE TYPE:IMS   UNIT 1213   STATUS:OLD                 
 FORMAT:FORMATTED              ACCESS:SEQUENTIAL          
 ACTION:READ                


 Creating solution: SLN_2           

 OPENED trans.ims
 FILE TYPE:IMS   UNIT 1214   STATUS:OLD                 
 FORMAT:FORMATTED              ACCESS:SEQUENTIAL          
 ACTION:READ                

 END OF SOLUTIONGROUP

PROCESSING MODEL CONNECTIONS
END OF MODEL CONNECTIONS

 IMS -- ITERATIVE MODEL SOLUTION PACKAGE, VERSION 6, 4/28/2017
         INPUT READ FROM UNIT 1213
 # File generated by Flopy version 3.4.2 on 10/26/2023 at 06:03:34.

 PROCESSING IMS OPTIONS
 END OF IMS OPTIONS

 PROCESSING IMS NONLINEAR
 END OF IMS NONLINEAR DATA
 ***UNDER-RELAXATION WILL NOT BE USED***
 
 ***IMS LINEAR SOLVER WILL BE USED***

 IMSLINEAR -- UNSTRUCTURED LINEAR SOLUTION PACKAGE, VERSION 8, 04/28/2017

 PROCESSING LINEAR DATA
 END OF LINEAR DATA
 An asymmetric matrix will be solved

 OUTER ITERATION CONVERGENCE CRITERION    (DVCLOSE) =    0.100000E-04
 MAXIMUM NUMBER OF OUTER ITERATIONS        (MXITER) = 100
 SOLVER PRINTOUT INDEX                     (IPRIMS) = 2
 NONLINEAR ITERATION METHOD            (NONLINMETH) = 0
 LINEAR SOLUTION METHOD                   (LINMETH) = 1

       SOLUTION BY THE BICONJUGATE-GRADIENT STABILIZED METHOD
 ------------------------------------------------------------------
 MAXIMUM OF 100 CALLS OF SOLUTION ROUTINE
 MAXIMUM OF 300 INTERNAL ITERATIONS PER CALL TO SOLUTION ROUTINE
 LINEAR ACCELERATION METHOD            = BCGS      
 MATRIX PRECONDITIONING TYPE           = MOD. INCOMPLETE LU  
 MATRIX SCALING APPROACH               = NO SCALING          
 MATRIX REORDERING APPROACH            = ORIGINAL ORDERING        
 NUMBER OF ORTHOGONALIZATIONS          = 0
 HEAD CHANGE CRITERION FOR CLOSURE     =    0.10000E-04
 RESIDUAL CHANGE CRITERION FOR CLOSURE =    0.10000E-02
 RESIDUAL CONVERGENCE OPTION           = 0
 RESIDUAL CONVERGENCE NORM             = INFINITY NORM   
 RELAXATION FACTOR                     =    0.97000E+00




 IMS -- ITERATIVE MODEL SOLUTION PACKAGE, VERSION 6, 4/28/2017
         INPUT READ FROM UNIT 1214
 # File generated by Flopy version 3.4.2 on 10/26/2023 at 06:03:34.

 PROCESSING IMS OPTIONS
 END OF IMS OPTIONS

 PROCESSING IMS NONLINEAR
 END OF IMS NONLINEAR DATA
 ***UNDER-RELAXATION WILL NOT BE USED***
 
 ***IMS LINEAR SOLVER WILL BE USED***

 IMSLINEAR -- UNSTRUCTURED LINEAR SOLUTION PACKAGE, VERSION 8, 04/28/2017

 PROCESSING LINEAR DATA
 END OF LINEAR DATA
 An asymmetric matrix will be solved

 OUTER ITERATION CONVERGENCE CRITERION    (DVCLOSE) =    0.100000E-02
 MAXIMUM NUMBER OF OUTER ITERATIONS        (MXITER) = 100
 SOLVER PRINTOUT INDEX                     (IPRIMS) = 2
 NONLINEAR ITERATION METHOD            (NONLINMETH) = 0
 LINEAR SOLUTION METHOD                   (LINMETH) = 1

       SOLUTION BY THE BICONJUGATE-GRADIENT STABILIZED METHOD
 ------------------------------------------------------------------
 MAXIMUM OF 100 CALLS OF SOLUTION ROUTINE
 MAXIMUM OF 300 INTERNAL ITERATIONS PER CALL TO SOLUTION ROUTINE
 LINEAR ACCELERATION METHOD            = BCGS      
 MATRIX PRECONDITIONING TYPE           = MOD. INCOMPLETE LU  
 MATRIX SCALING APPROACH               = NO SCALING          
 MATRIX REORDERING APPROACH            = ORIGINAL ORDERING        
 NUMBER OF ORTHOGONALIZATIONS          = 0
 HEAD CHANGE CRITERION FOR CLOSURE     =    0.10000E-02
 RESIDUAL CHANGE CRITERION FOR CLOSURE =    0.10000E-02
 RESIDUAL CONVERGENCE OPTION           = 0
 RESIDUAL CONVERGENCE NORM             = INFINITY NORM   
 RELAXATION FACTOR                     =    0.97000E+00



 
    Solving:  Stress period:     1    Time step:     1
 
1
                            STRESS PERIOD NO. 1, LENGTH =   36500.00    
                            -----------------------------------------------
                            NUMBER OF TIME STEPS = 25
                            MULTIPLIER FOR DELT =     1.000
                            INITIAL TIME STEP SIZE =   1460.000    

 SLN_1 OUTER ITERATION SUMMARY
 ----------------------------------------------------------------------------------------------------------
                                OUTER      INNER                    STEP   MAXIMUM CHANGE MODEL-(CELLID) OR
 OUTER ITERATION STEP       ITERATION  ITERATION  MAXIMUM CHANGE SUCCESS             MODEL-PACKAGE-(NUMBER)
 ----------------------------------------------------------------------------------------------------------
 Model                              1        300      -4.1458086                          1_GWF-(70,1,1250)
 Model                              2        300      -6.0729298                             1_GWF-(46,1,1)
 Model                              3        300      -1.6232621                           1_GWF-(88,1,700)
 Model                              4        300      -1.3664112                          1_GWF-(56,1,2160)
 Model                              5        300     -0.80436856                             1_GWF-(90,1,1)
 Model                              6        300     -0.64068861                          1_GWF-(56,1,2120)
 Model                              7        300     -0.41735332                             1_GWF-(90,1,1)
 Model                              8        300     -0.30737861                          1_GWF-(52,1,2086)
 Model                              9        269     -0.20223945                             1_GWF-(90,1,1)
 Model                             10        300     -0.10528884                          1_GWF-(46,1,2469)
 Model                             11        172 -6.54445184E-02                             1_GWF-(90,1,1)
 Model                             12        149 -6.63906530E-02                             1_GWF-(36,1,2)
 Model                             13        106 -2.87161677E-02                          1_GWF-(84,1,1225)
 Model                             14        277     -0.13132188                             1_GWF-(17,1,1)
 Model                             15        300     -0.31547402                             1_GWF-(18,1,1)
 Model                             16        209  5.13238296E-02                             1_GWF-(18,1,1)
 Model                             17        118  1.24649048E-02                           1_GWF-(89,1,932)
 Model                             18         42  2.24180861E-03                             1_GWF-(90,1,1)
 Model                             19         63  1.81529232E-03                             1_GWF-(86,1,1)
 Model                             20        109  5.04189377E-03                             1_GWF-(86,1,1)
 Model                             21         39 -3.66752550E-04                          1_GWF-(28,1,2553)
 Model                             22          3 -1.03270318E-05                            1_GWF-(64,1,10)
 Model                             23          8  4.68992168E-05                           1_GWF-(43,1,113)
 Model                             24          5  2.57130454E-05                             1_GWF-(54,1,1)
 Model                             25          1 -8.67655339E-06       *                  1_GWF-(21,1,2450)
 ----------------------------------------------------------------------------------------------------------


 25 CALLS TO NUMERICAL SOLUTION IN TIME STEP 1 STRESS PERIOD 1
 4570 TOTAL ITERATIONS

 SLN_1 INNER ITERATION SUMMARY
 --------------------------------------------------------------------------------------------------------------------------------------
      TOTAL      OUTER      INNER                                                            MAXIMUM                                   
  ITERATION  ITERATION  ITERATION  MAXIMUM CHANGE      MAXIMUM CHANGE MODEL-(CELLID)        RESIDUAL    MAXIMUM RESIDUAL MODEL-(CELLID)
 --------------------------------------------------------------------------------------------------------------------------------------
          1          1          1  8.94159700E-02                  1_GWF-(40,1,2800)      0.75594468                  1_GWF-(47,1,4000)
          2          1          2 -9.79526979E-03                  1_GWF-(65,1,1255)      0.18251797                  1_GWF-(40,1,2800)
          3          1          3 -1.07651600E-02                  1_GWF-(64,1,1236)  3.65830627E-02                  1_GWF-(40,1,2800)
          4          1          4 -3.45036178E-02                  1_GWF-(64,1,1231)  1.32037782E-02                  1_GWF-(70,1,1251)
          5          1          5 -4.10415693E-02                  1_GWF-(63,1,1251)  9.89888230E-03                  1_GWF-(85,1,1250)
          6          1          6 -1.80240409E-02                  1_GWF-(65,1,1252)  1.29337539E-02                  1_GWF-(70,1,1250)
          7          1          7     -0.14663260                    1_GWF-(64,1,10)  4.54141349E-02                  1_GWF-(70,1,1250)
          8          1          8     -0.16435141                  1_GWF-(70,1,1250)  8.23422641E-03                  1_GWF-(70,1,1251)
          9          1          9 -2.58316646E-02                  1_GWF-(64,1,1262)  4.29928630E-03                  1_GWF-(67,1,1208)
         10          1         10 -3.64276446E-02                    1_GWF-(64,1,10)  4.32270429E-03                  1_GWF-(67,1,1218)
         11          1         11  5.22357268E-02                    1_GWF-(64,1,10)  3.29878203E-03                  1_GWF-(85,1,1250)
         12          1         12  7.80075081E-02                  1_GWF-(86,1,1250)  6.55927810E-03                  1_GWF-(85,1,1250)
         13          1         13     -0.10666469                  1_GWF-(85,1,1250) -7.35996165E-03                  1_GWF-(42,1,2798)
         14          1         14 -2.20187566E-02                  1_GWF-(64,1,1262)  4.12472525E-03                  1_GWF-(68,1,1252)
         15          1         15 -2.23762345E-02                  1_GWF-(65,1,1251)  3.16322851E-03                  1_GWF-(67,1,1207)
         16          1         16      0.17774379                    1_GWF-(64,1,10)  1.19630125E-02                  1_GWF-(67,1,1207)
         17          1         17     -0.17285891                    1_GWF-(64,1,10)  2.47081209E-03                  1_GWF-(67,1,1207)
         18          1         18 -3.32883386E-02                  1_GWF-(82,1,1250)  2.09803295E-03                  1_GWF-(67,1,1166)
         19          1         19  5.33944305E-02                    1_GWF-(64,1,10)  2.14115241E-03                  1_GWF-(67,1,1185)
         20          1         20 -4.76274867E-02                    1_GWF-(64,1,10)  2.02645518E-03                  1_GWF-(67,1,1346)
         21          1         21  2.92204255E-02                    1_GWF-(64,1,10)  2.01039441E-03                  1_GWF-(67,1,1154)
         22          1         22 -8.51627342E-02                    1_GWF-(64,1,12) -3.85730868E-03                    1_GWF-(64,1,14)
         23          1         23  7.11785743E-02                    1_GWF-(64,1,12)  1.85915635E-03                  1_GWF-(67,1,1351)
         24          1         24  3.90331660E-02                     1_GWF-(63,1,8)  2.12451332E-03                  1_GWF-(67,1,1183)
         25          1         25 -6.58964494E-02                     1_GWF-(63,1,9)  4.88753800E-03                  1_GWF-(67,1,1207)
         26          1         26 -7.31401898E-02                  1_GWF-(65,1,1254)  1.49355788E-03                  1_GWF-(67,1,1130)
         27          1         27 -8.67520331E-02                  1_GWF-(65,1,1252)  1.59213106E-03                  1_GWF-(67,1,1113)
         28          1         28  6.88395922E-02                  1_GWF-(65,1,1251)  2.15658215E-03                  1_GWF-(67,1,1184)
         29          1         29 -3.37812437E-02                  1_GWF-(65,1,1250)  1.97157115E-03                  1_GWF-(67,1,1173)
         30          1         30 -1.15724069E-02                     1_GWF-(63,1,7)  1.36098581E-03                  1_GWF-(67,1,1394)
         31          1         31 -1.56174146E-02                  1_GWF-(87,1,1249)  1.34633201E-03                  1_GWF-(67,1,1101)
         32          1         32  2.28937388E-02                     1_GWF-(63,1,6)  1.32080062E-03                  1_GWF-(67,1,1402)
         33          1         33 -3.30257221E-02                     1_GWF-(63,1,6)  1.31688601E-03                  1_GWF-(67,1,1419)
         34          1         34  1.26288236E-02                     1_GWF-(63,1,6)  1.28810752E-03                  1_GWF-(67,1,1405)
         35          1         35 -2.34405779E-02                  1_GWF-(83,1,1248)  1.27951018E-03                  1_GWF-(67,1,1078)
         36          1         36  1.23267042E-02                     1_GWF-(63,1,7)  1.27462020E-03                  1_GWF-(67,1,1421)
         37          1         37 -2.25160939E-02                  1_GWF-(88,1,1249)  1.26591568E-03                  1_GWF-(67,1,1430)
         38          1         38  1.17937098E-02                    1_GWF-(63,1,10)  1.26898780E-03                  1_GWF-(67,1,1428)
         39          1         39 -5.82865109E-02                    1_GWF-(63,1,16) -3.37972451E-03                    1_GWF-(63,1,14)
         40          1         40  5.57081377E-02                    1_GWF-(63,1,15)  1.13181567E-03                  1_GWF-(67,1,1055)
         41          1         41 -1.78104480E-02                  1_GWF-(88,1,1247)  1.13447748E-03                  1_GWF-(67,1,1052)
         42          1         42  3.54803109E-03                  1_GWF-(63,1,1130)  1.12471372E-03                  1_GWF-(67,1,1449)
         43          1         43 -3.33128665E-02                  1_GWF-(65,1,1406)  1.16307073E-03                  1_GWF-(40,1,2800)
         44          1         44  3.92371853E-02                    1_GWF-(64,1,12)  2.54672491E-03                  1_GWF-(40,1,2800)
         45          1         45 -4.64299491E-02                  1_GWF-(88,1,1232)  1.02339004E-03                  1_GWF-(67,1,1023)
         46          1         46     -0.22696182                  1_GWF-(65,1,1270) -3.58929847E-03                    1_GWF-(64,1,12)
         47          1         47      0.20529971                  1_GWF-(65,1,1270)  1.02300545E-03                  1_GWF-(67,1,1480)
         48          1         48 -4.20799823E-02                  1_GWF-(65,1,1271)  1.01509021E-03                   1_GWF-(67,1,995)
         49          1         49  2.33035429E-02                    1_GWF-(64,1,11)  1.02425584E-03                  1_GWF-(67,1,1016)
         50          1         50 -3.16528809E-02                  1_GWF-(65,1,1271)  1.00652463E-03                   1_GWF-(67,1,993)
         51          1         51  1.50415045E-02                    1_GWF-(64,1,12)  9.73103260E-04                  1_GWF-(67,1,1011)
         52          1         52 -2.51787219E-02                  1_GWF-(89,1,1254)  9.79692869E-04                  1_GWF-(67,1,1513)
         53          1         53  1.33236927E-02                    1_GWF-(64,1,13)  9.77665986E-04                  1_GWF-(67,1,1510)
         54          1         54 -2.53779521E-02                  1_GWF-(89,1,1253)  9.76180343E-04                  1_GWF-(67,1,1517)
         55          1         55  1.02122561E-02                    1_GWF-(64,1,26)  9.75253058E-04                  1_GWF-(67,1,1520)
         56          1         56 -2.59430632E-02                  1_GWF-(90,1,1259)  9.76039823E-04                  1_GWF-(67,1,1532)
         57          1         57  1.10380400E-02                    1_GWF-(63,1,20)  9.75832596E-04                  1_GWF-(11,1,1534)
         58          1         58  4.90752559E-02                    1_GWF-(64,1,13)  2.58969316E-03                    1_GWF-(64,1,15)
         59          1         59 -4.71978342E-02                    1_GWF-(64,1,14)  8.86272817E-04                  1_GWF-(67,1,1551)
         60          1         60 -2.35968540E-02                  1_GWF-(89,1,1251)  8.98155029E-04                  1_GWF-(67,1,1558)
         61          1         61 -3.30805377E-03                     1_GWF-(63,1,9)  8.95572148E-04                  1_GWF-(67,1,1553)
         62          1         62 -3.77511244E-02                  1_GWF-(65,1,1248)  9.00306444E-04                  1_GWF-(67,1,1564)
         63          1         63  4.46976575E-02                  1_GWF-(89,1,1251)  8.97095268E-04                  1_GWF-(67,1,1546)
         64          1         64 -8.61372362E-02                  1_GWF-(89,1,1251)  9.25543130E-04                  1_GWF-(67,1,1597)
         65          1         65 -7.91545390E-02                  1_GWF-(65,1,1211)  9.88980695E-04                  1_GWF-(67,1,1582)
         66          1         66  3.92683116E-02                  1_GWF-(65,1,1210)  9.60359351E-04                  1_GWF-(67,1,1596)
         67          1         67 -4.25257986E-02                  1_GWF-(89,1,1251)  9.87971129E-04                  1_GWF-(67,1,1600)
         68          1         68 -1.21322256E-02                    1_GWF-(63,1,11)  9.86747809E-04                  1_GWF-(67,1,1603)
         69          1         69 -3.48124775E-02                  1_GWF-(65,1,1211)  9.99962017E-04                  1_GWF-(67,1,1608)
         70          1         70 -7.27445371E-03                     1_GWF-(63,1,9)  1.00605808E-03                  1_GWF-(67,1,1608)
         71          1         71 -3.33282651E-02                  1_GWF-(88,1,1251)  1.02114267E-03                  1_GWF-(67,1,1614)
         72          1         72  8.94419322E-03                  1_GWF-(88,1,1251)  1.01748643E-03                  1_GWF-(67,1,1613)
         73          1         73 -5.43398711E-02                  1_GWF-(65,1,1244)  9.75158886E-04                  1_GWF-(67,1,1615)
         74          1         74     -0.13099276                     1_GWF-(63,1,8) -6.41154569E-03                     1_GWF-(63,1,7)
         75          1         75     -0.14312522                  1_GWF-(65,1,1212)  9.77799826E-04                  1_GWF-(67,1,1631)
         76          1         76 -5.51151956E-02                  1_GWF-(87,1,1252)  1.00152692E-03                  1_GWF-(67,1,1645)
         77          1         77  2.42158105E-02                  1_GWF-(65,1,1086)  9.73518474E-04                  1_GWF-(67,1,1631)
         78          1         78 -3.79408667E-02                  1_GWF-(65,1,1088)  9.89945306E-04                  1_GWF-(67,1,1647)
         79          1         79 -1.14243148E-02                     1_GWF-(63,1,8)  9.77015396E-04                  1_GWF-(67,1,1648)
         80          1         80 -3.27628987E-02                  1_GWF-(87,1,1253)  9.79000152E-04                  1_GWF-(67,1,1659)
         81          1         81  3.88814732E-03                     1_GWF-(63,1,9)  9.80347199E-04                  1_GWF-(67,1,1657)
         82          1         82 -3.54529583E-02                  1_GWF-(87,1,1253)  9.85472243E-04                  1_GWF-(67,1,1664)
         83          1         83  2.19977864E-02                  1_GWF-(86,1,1253)  9.85788843E-04                  1_GWF-(67,1,1658)
         84          1         84 -7.69580445E-02                    1_GWF-(63,1,13) -4.46165494E-03                    1_GWF-(63,1,12)
         85          1         85  7.54318941E-02                    1_GWF-(63,1,13)  7.42448409E-04                  1_GWF-(67,1,1709)
         86          1         86 -2.64108548E-02                  1_GWF-(65,1,1399)  7.35779087E-04                  1_GWF-(67,1,1696)
         87          1         87  3.80202566E-03                    1_GWF-(64,1,18)  7.30171701E-04                  1_GWF-(67,1,1686)
         88          1         88 -3.65487289E-02                  1_GWF-(65,1,1399)  7.41440147E-04                  1_GWF-(67,1,1723)
         89          1         89  2.62881573E-02                  1_GWF-(65,1,1246)  7.53794760E-04                  1_GWF-(67,1,1723)
         90          1         90 -6.01574936E-02                  1_GWF-(88,1,1265)  7.37035937E-04                  1_GWF-(67,1,1718)
         91          1         91      0.32745593                  1_GWF-(88,1,1268)  1.35182775E-03                    1_GWF-(64,1,22)
         92          1         92     -0.35887918                  1_GWF-(88,1,1270)  7.61931504E-04                  1_GWF-(67,1,1722)
         93          1         93     -0.12556611                  1_GWF-(61,1,1499) -2.53632942E-03                    1_GWF-(64,1,13)
         94          1         94  9.04842087E-02                  1_GWF-(61,1,1499)  7.22713374E-04                  1_GWF-(67,1,1725)
         95          1         95 -4.51954404E-02                  1_GWF-(88,1,1278)  7.23773692E-04                  1_GWF-(67,1,1742)
         96          1         96  2.96048477E-02                    1_GWF-(64,1,15)  1.39943916E-03                    1_GWF-(64,1,18)
         97          1         97 -3.44821489E-02                  1_GWF-(65,1,1245)  7.11891266E-04                  1_GWF-(67,1,1750)
         98          1         98  5.13697615E-03                    1_GWF-(64,1,18)  7.03745442E-04                  1_GWF-(67,1,1729)
         99          1         99 -3.56751721E-02                  1_GWF-(88,1,1297)  7.05497761E-04                  1_GWF-(67,1,1754)
        100          1        100  8.82054385E-03                    1_GWF-(64,1,25)  6.99217106E-04                  1_GWF-(67,1,1760)
        101          1        101 -3.06989036E-02                  1_GWF-(88,1,1311)  7.03267925E-04                  1_GWF-(67,1,1759)
        102          1        102  4.95063652E-03                    1_GWF-(64,1,31)  7.00079347E-04                  1_GWF-(67,1,1771)
        103          1        103 -2.88790837E-02                  1_GWF-(88,1,1336)  7.01332691E-04                  1_GWF-(67,1,1774)
        104          1        104  2.76928430E-03                    1_GWF-(64,1,26)  7.01056351E-04                  1_GWF-(67,1,1772)
        105          1        105 -2.89950525E-02                  1_GWF-(61,1,1589)  7.83421227E-04                    1_GWF-(62,1,11)
        106          1        106  1.82047314E-02                    1_GWF-(64,1,32)  6.96776577E-04                  1_GWF-(67,1,1781)
        107          1        107 -3.24161323E-02                  1_GWF-(63,1,1592)  6.84131324E-04                  1_GWF-(67,1,1786)
        108          1        108     -0.36775087                  1_GWF-(85,1,1450)  9.21908009E-04                    1_GWF-(65,1,13)
        109          1        109      0.34695496                  1_GWF-(87,1,1408) -1.16683369E-03                    1_GWF-(65,1,13)
        110          1        110 -2.45003987E-02                  1_GWF-(65,1,1608)  6.50629773E-04                  1_GWF-(67,1,1818)
        111          1        111  6.47599794E-03                     1_GWF-(63,1,6)  6.49637947E-04                  1_GWF-(67,1,1816)
        112          1        112 -2.61017943E-02                  1_GWF-(61,1,1580)  6.40134398E-04                  1_GWF-(67,1,1805)
        113          1        113 -3.45934172E-02                  1_GWF-(64,1,1504)  6.33324053E-04                  1_GWF-(67,1,1816)
        114          1        114  2.59027910E-02                  1_GWF-(89,1,1240) -9.34523555E-04                  1_GWF-(67,1,1259)
        115          1        115 -1.31527383E-02                  1_GWF-(64,1,1501) -6.61256009E-04                  1_GWF-(67,1,1242)
        116          1        116 -1.65298081E-02                  1_GWF-(62,1,1544)  5.90161198E-04                  1_GWF-(67,1,1818)
        117          1        117      0.44790979                  1_GWF-(62,1,1528) -8.04464843E-03                  1_GWF-(67,1,1242)
        118          1        118     -0.46849892                  1_GWF-(62,1,1528)  5.78196241E-04                  1_GWF-(67,1,1822)
        119          1        119 -8.87489576E-03                  1_GWF-(63,1,1585)  5.73994464E-04                  1_GWF-(67,1,1826)
        120          1        120 -1.16464187E-02                  1_GWF-(65,1,1605)  5.77339262E-04                  1_GWF-(67,1,1818)
        121          1        121 -2.19676302E-02                  1_GWF-(61,1,1578)  5.75439699E-04                  1_GWF-(67,1,1844)
        122          1        122  7.09135860E-03                  1_GWF-(65,1,1245)  5.57878666E-04                  1_GWF-(67,1,1822)
        123          1        123 -8.39730738E-03                  1_GWF-(61,1,1575)  5.52391054E-04                  1_GWF-(67,1,1835)
        124          1        124 -7.43667378E-03                  1_GWF-(65,1,1603)  5.49953477E-04                  1_GWF-(67,1,1821)
        125          1        125 -1.37401610E-02                  1_GWF-(65,1,1644)  5.38693046E-04                  1_GWF-(67,1,1843)
        126          1        126  3.07072941E-03                    1_GWF-(64,1,10)  5.39938709E-04                  1_GWF-(67,1,1842)
        127          1        127 -1.50862455E-02                  1_GWF-(64,1,1622)  5.29251162E-04                  1_GWF-(67,1,1845)
        128          1        128  2.25249306E-03                  1_GWF-(64,1,1623)  5.31040480E-04                  1_GWF-(67,1,1845)
        129          1        129 -2.64755586E-02                  1_GWF-(65,1,1749) -5.28439781E-04                    1_GWF-(64,1,14)
        130          1        130  2.82916942E-02                  1_GWF-(64,1,1504) -6.95526383E-04                  1_GWF-(68,1,1237)
        131          1        131 -5.04517871E-02                  1_GWF-(64,1,1504)  4.86692256E-04                  1_GWF-(67,1,1844)
        132          1        132  2.05420306E-02                  1_GWF-(82,1,1656)  5.03109908E-04                  1_GWF-(67,1,1842)
        133          1        133 -4.80177716E-02                  1_GWF-(82,1,1659)  4.68218061E-04                  1_GWF-(67,1,1888)
        134          1        134 -6.23440263E-02                  1_GWF-(82,1,1663)  4.39279643E-04                  1_GWF-(67,1,1920)
        135          1        135  3.11710451E-02                  1_GWF-(82,1,1659)  4.51595499E-04                  1_GWF-(67,1,1891)
        136          1        136 -3.50892322E-02                  1_GWF-(82,1,1668)  4.34578296E-04                   1_GWF-(67,1,578)
        137          1        137  4.94383574E-03                  1_GWF-(64,1,1503)  4.38249249E-04                   1_GWF-(67,1,559)
        138          1        138 -3.27985552E-02                  1_GWF-(82,1,1673)  4.31457581E-04                   1_GWF-(67,1,551)
        139          1        139 -2.40978230E-03                    1_GWF-(63,1,20)  4.35105179E-04                   1_GWF-(67,1,529)
        140          1        140 -1.94953958E-02                  1_GWF-(65,1,1635)  4.27891855E-04                   1_GWF-(67,1,530)
        141          1        141 -9.86227222E-03                  1_GWF-(83,1,1685)  4.31384876E-04                   1_GWF-(67,1,528)
        142          1        142 -1.86634849E-02                  1_GWF-(65,1,1689)  4.26213515E-04                   1_GWF-(67,1,523)
        143          1        143  1.58213935E-03                     1_GWF-(64,1,8)  4.26051429E-04                   1_GWF-(67,1,509)
        144          1        144 -1.77939649E-02                  1_GWF-(83,1,1691)  4.25591346E-04                   1_GWF-(67,1,505)
        145          1        145  3.64160643E-02                  1_GWF-(83,1,1694)  4.30399605E-04                   1_GWF-(67,1,508)
        146          1        146 -5.73057688E-02                  1_GWF-(83,1,1705)  4.35090774E-04                   1_GWF-(67,1,504)
        147          1        147 -1.98295540E-02                  1_GWF-(65,1,1767)  4.20625228E-04                   1_GWF-(67,1,480)
        148          1        148 -9.03483369E-03                  1_GWF-(65,1,1714)  4.17130560E-04                   1_GWF-(67,1,488)
        149          1        149 -1.80031577E-02                  1_GWF-(83,1,1702)  4.15780926E-04                   1_GWF-(67,1,473)
        150          1        150  2.95424543E-02                  1_GWF-(83,1,1703)  4.20829745E-04                   1_GWF-(67,1,507)
        151          1        151 -5.31399637E-02                  1_GWF-(83,1,1707)  4.14782364E-04                   1_GWF-(67,1,507)
        152          1        152 -1.74514829E-02                  1_GWF-(65,1,1752)  4.15449513E-04                   1_GWF-(67,1,460)
        153          1        153 -1.48456564E-02                  1_GWF-(65,1,1744)  4.14605909E-04                   1_GWF-(67,1,426)
        154          1        154 -3.64918479E-02                  1_GWF-(65,1,1702)  4.30320744E-04                   1_GWF-(67,1,458)
        155          1        155  8.59116462E-03                  1_GWF-(65,1,1701)  4.11746045E-04                   1_GWF-(67,1,440)
        156          1        156  9.68587269E-03                  1_GWF-(83,1,1715)  4.11892412E-04                   1_GWF-(67,1,444)
        157          1        157 -4.81026332E-02                  1_GWF-(65,1,1760)  4.06175633E-04                   1_GWF-(67,1,446)
        158          1        158 -5.94574301E-03                    1_GWF-(64,1,10)  3.99379375E-04                   1_GWF-(67,1,436)
        159          1        159  2.46726207E-03                    1_GWF-(64,1,11)  3.99482036E-04                   1_GWF-(67,1,424)
        160          1        160 -4.33007379E-03                  1_GWF-(65,1,1699)  3.98835465E-04                   1_GWF-(67,1,423)
        161          1        161 -2.99397178E-02                  1_GWF-(84,1,1719)  3.98964001E-04                   1_GWF-(67,1,416)
        162          1        162  2.56426244E-03                  1_GWF-(64,1,1602)  3.97606893E-04                   1_GWF-(67,1,398)
        163          1        163 -5.27125644E-03                  1_GWF-(84,1,1725)  3.96919748E-04                   1_GWF-(67,1,399)
        164          1        164 -1.17335342E-02                  1_GWF-(63,1,1741)  3.93793913E-04                   1_GWF-(67,1,420)
        165          1        165 -8.50130852E-03                  1_GWF-(64,1,1742)  3.96926367E-04                   1_GWF-(67,1,396)
        166          1        166  4.36572756E-02                  1_GWF-(64,1,1606)  5.27859546E-04                   1_GWF-(66,1,326)
        167          1        167 -5.25745365E-02                  1_GWF-(65,1,1615)  3.91127723E-04                   1_GWF-(67,1,396)
        168          1        168 -1.01117255E-02                  1_GWF-(84,1,1743)  3.87940208E-04                   1_GWF-(67,1,397)
        169          1        169 -7.38550283E-03                  1_GWF-(65,1,1761)  3.87741906E-04                   1_GWF-(67,1,394)
        170          1        170 -1.28825632E-02                  1_GWF-(85,1,1749)  3.86653680E-04                  1_GWF-(67,1,2161)
        171          1        171 -2.38150662E-02                  1_GWF-(85,1,1751)  3.93055899E-04                  1_GWF-(67,1,2181)
        172          1        172  3.66382449E-03                     1_GWF-(64,1,8)  3.99560453E-04                  1_GWF-(67,1,2205)
        173          1        173 -2.44513686E-02                  1_GWF-(65,1,1793)  3.98293692E-04                  1_GWF-(67,1,2195)
        174          1        174  4.16829262E-03                  1_GWF-(85,1,1760)  3.96863470E-04                  1_GWF-(67,1,2192)
        175          1        175 -1.61134322E-02                  1_GWF-(85,1,1761)  4.02428279E-04                  1_GWF-(67,1,2207)
        176          1        176  1.33830242E-03                    1_GWF-(64,1,10)  4.01973290E-04                  1_GWF-(67,1,2206)
        177          1        177 -1.67422161E-02                   1_GWF-(64,1,611)  5.31833683E-04                    1_GWF-(64,1,11)
        178          1        178 -1.57719101E-02                  1_GWF-(64,1,1698)  4.07633607E-04                  1_GWF-(67,1,2229)
        179          1        179 -1.74021753E-02                  1_GWF-(85,1,1770)  4.14585278E-04                  1_GWF-(67,1,2239)
        180          1        180 -6.14642305E-04                  1_GWF-(64,1,2378)  4.14621164E-04                  1_GWF-(67,1,2240)
        181          1        181 -1.93415455E-02                  1_GWF-(85,1,1777)  4.22065574E-04                  1_GWF-(67,1,2250)
        182          1        182  7.24884815E-03                  1_GWF-(86,1,1780)  4.19407360E-04                  1_GWF-(67,1,2246)
        183          1        183     -0.13708526                  1_GWF-(85,1,2238)  1.09159974E-03                    1_GWF-(64,1,13)
        184          1        184 -3.54741187E-02                    1_GWF-(64,1,11) -4.43490099E-04                    1_GWF-(64,1,12)
        185          1        185  1.27685529E-02                    1_GWF-(64,1,11)  3.95517121E-04                     1_GWF-(67,1,2)
        186          1        186 -1.04703256E-02                  1_GWF-(18,1,1309)  3.97970636E-04                     1_GWF-(67,1,2)
        187          1        187  9.24065148E-02                  1_GWF-(20,1,1306)  1.00378294E-03                  1_GWF-(47,1,2793)
        188          1        188     -0.10603896                  1_GWF-(22,1,1304)  4.00256169E-04                     1_GWF-(67,1,2)
        189          1        189 -1.58135956E-02                  1_GWF-(17,1,1299)  4.01941671E-04                     1_GWF-(67,1,2)
        190          1        190  1.87050931E-03                    1_GWF-(64,1,12)  4.02180684E-04                     1_GWF-(67,1,2)
        191          1        191 -1.07877639E-02                  1_GWF-(20,1,1293)  4.03092486E-04                     1_GWF-(67,1,2)
        192          1        192 -8.36118084E-03                  1_GWF-(22,1,1289)  4.03494649E-04                     1_GWF-(67,1,2)
        193          1        193 -6.55303203E-03                   1_GWF-(63,1,845)  4.01510788E-04                     1_GWF-(67,1,2)
        194          1        194 -9.99016274E-03                   1_GWF-(64,1,819)  4.00546943E-04                     1_GWF-(67,1,2)
        195          1        195 -5.38995637E-02                  1_GWF-(21,1,1271)  3.96935108E-04                     1_GWF-(67,1,2)
        196          1        196  4.37188471E-02                  1_GWF-(22,1,1277)  3.98155232E-04                     1_GWF-(67,1,2)
        197          1        197 -1.81065850E-02                  1_GWF-(17,1,1261)  3.96205587E-04                     1_GWF-(67,1,2)
        198          1        198  1.02213192E-03                    1_GWF-(64,1,31)  3.95449507E-04                     1_GWF-(67,1,2)
        199          1        199 -2.69137601E-02                  1_GWF-(24,1,1249)  3.91070446E-04                     1_GWF-(67,1,2)
        200          1        200 -7.34086431E-03                  1_GWF-(19,1,1240)  3.89638838E-04                     1_GWF-(67,1,2)
        201          1        201  2.01655938E-03                  1_GWF-(24,1,1274)  3.89797813E-04                     1_GWF-(67,1,2)
        202          1        202  5.48384159E-04                     1_GWF-(63,1,6)  3.89252559E-04                     1_GWF-(67,1,2)
        203          1        203 -2.36062130E-02                  1_GWF-(22,1,1223)  3.84042932E-04                     1_GWF-(67,1,2)
        204          1        204  1.65403909E-03                     1_GWF-(63,1,6)  3.82869429E-04                     1_GWF-(67,1,2)
        205          1        205 -1.39017807E-02                  1_GWF-(16,1,1200)  3.78666316E-04                     1_GWF-(67,1,2)
        206          1        206 -1.14308351E-02                  1_GWF-(13,1,1190)  3.74994057E-04                     1_GWF-(67,1,2)
        207          1        207  1.96568344E-02                  1_GWF-(12,1,1172)  3.82052470E-04                     1_GWF-(67,1,2)
        208          1        208 -3.74459031E-02                  1_GWF-(12,1,1071)  3.62439619E-04                     1_GWF-(67,1,2)
        209          1        209 -6.71383277E-03                   1_GWF-(63,1,845)  3.60835404E-04                     1_GWF-(67,1,2)
        210          1        210 -1.12767265E-02                   1_GWF-(63,1,951)  3.53773374E-04                     1_GWF-(67,1,2)
        211          1        211 -1.22485350E-02                   1_GWF-(63,1,846)  3.49910495E-04                     1_GWF-(67,1,2)
        212          1        212  1.12177757E-03                   1_GWF-(63,1,739)  3.50013929E-04                     1_GWF-(67,1,2)
        213          1        213 -2.01029809E-02                  1_GWF-(13,1,1111)  3.43035542E-04                     1_GWF-(67,1,2)
        214          1        214 -7.72894702E-03                  1_GWF-(13,1,1092)  3.40244690E-04                     1_GWF-(67,1,2)
        215          1        215 -1.45564300E-02                  1_GWF-(12,1,1094)  3.34901502E-04                     1_GWF-(67,1,2)
        216          1        216     -0.15488496                  1_GWF-(12,1,1092)  3.12618112E-04                   1_GWF-(67,1,225)
        217          1        217      0.12039011                  1_GWF-(12,1,1093)  3.22346209E-04                     1_GWF-(67,1,2)
        218          1        218  2.46086177E-03                   1_GWF-(63,1,739)  3.22342985E-04                     1_GWF-(67,1,2)
        219          1        219 -8.60724246E-03                   1_GWF-(63,1,951)  3.19722003E-04                     1_GWF-(67,1,2)
        220          1        220 -5.12974466E-02                  1_GWF-(12,1,1080)  3.01568434E-04                     1_GWF-(67,1,2)
        221          1        221  5.93720853E-03                  1_GWF-(64,1,1607)  7.77433935E-04                  1_GWF-(47,1,2793)
        222          1        222 -5.14561686E-02                  1_GWF-(12,1,1079)  6.52883980E-04                  1_GWF-(40,1,2800)
        223          1        223  1.04456293E-02                    1_GWF-(64,1,33)  4.40271821E-04                  1_GWF-(40,1,2800)
        224          1        224 -2.60778362E-02                  1_GWF-(12,1,1075)  3.59603178E-04                  1_GWF-(90,1,1245)
        225          1        225 -5.40140462E-02                  1_GWF-(13,1,1072)  3.05532642E-04                   1_GWF-(67,1,228)
        226          1        226 -2.32128987E-02                  1_GWF-(12,1,1070)  3.08488977E-04                   1_GWF-(67,1,235)
        227          1        227 -2.49707361E-02                  1_GWF-(21,1,1027)  4.56802335E-04                  1_GWF-(40,1,2800)
        228          1        228 -1.81465311E-02                  1_GWF-(12,1,1066)  3.09814600E-04                   1_GWF-(67,1,238)
        229          1        229  3.78073495E-03                     1_GWF-(64,1,6)  3.09466024E-04                   1_GWF-(67,1,241)
        230          1        230  1.03639725E-02                  1_GWF-(13,1,1060)  3.44500727E-04                  1_GWF-(40,1,2800)
        231          1        231 -2.68486454E-02                  1_GWF-(13,1,1060)  3.11002109E-04                   1_GWF-(67,1,244)
        232          1        232 -2.15069190E-02                  1_GWF-(14,1,1050)  3.13243876E-04                    1_GWF-(7,1,245)
        233          1        233      0.21665484                  1_GWF-(13,1,1050)  2.28773734E-03                  1_GWF-(47,1,2793)
        234          1        234     -0.24095026                  1_GWF-(13,1,1049)  3.21340988E-04                  1_GWF-(46,1,2794)
        235          1        235  2.96941892E-03                     1_GWF-(64,1,6)  3.16441554E-04                    1_GWF-(7,1,245)
        236          1        236 -5.48714350E-03                     1_GWF-(64,1,6)  3.17066336E-04                    1_GWF-(7,1,245)
        237          1        237 -4.86879129E-03                   1_GWF-(65,1,165)  3.17539861E-04                    1_GWF-(7,1,245)
        238          1        238  1.35841064E-03                  1_GWF-(64,1,1121)  3.16533271E-04                    1_GWF-(7,1,244)
        239          1        239  4.11562695E-03                   1_GWF-(64,1,993)  3.16459556E-04                    1_GWF-(7,1,245)
        240          1        240 -1.35267231E-02                   1_GWF-(65,1,165)  3.16611991E-04                    1_GWF-(7,1,242)
        241          1        241 -3.18798991E-02                   1_GWF-(88,1,221)  3.16383101E-04                    1_GWF-(7,1,232)
        242          1        242  1.87651788E-02                   1_GWF-(65,1,273)  3.16135780E-04                    1_GWF-(7,1,238)
        243          1        243 -1.71844986E-02                   1_GWF-(88,1,223)  3.15805000E-04                    1_GWF-(7,1,232)
        244          1        244 -1.70054669E-02                   1_GWF-(88,1,224)  3.15507792E-04                    1_GWF-(7,1,225)
        245          1        245 -4.97610576E-02                   1_GWF-(88,1,224)  3.15982568E-04                    1_GWF-(7,1,196)
        246          1        246 -9.07560826E-02                   1_GWF-(88,1,224)  3.38094198E-04                      1_GWF-(7,1,2)
        247          1        247       1.5499834                   1_GWF-(88,1,224)  6.66888695E-04                   1_GWF-(67,1,270)
        248          1        248      -1.1127405                   1_GWF-(88,1,224)  3.72506253E-04                   1_GWF-(67,1,260)
        249          1        249 -6.42567186E-02                   1_GWF-(88,1,225)  3.55142411E-04                   1_GWF-(67,1,258)
        250          1        250 -2.13697974E-02                   1_GWF-(88,1,226)  3.49348627E-04                   1_GWF-(67,1,257)
        251          1        251 -7.04730147E-03                     1_GWF-(63,1,7)  3.42648096E-04                   1_GWF-(67,1,254)
        252          1        252 -4.05064935E-03                    1_GWF-(62,1,20)  3.42900810E-04                   1_GWF-(67,1,256)
        253          1        253 -7.68675169E-03                    1_GWF-(63,1,69)  3.40590351E-04                   1_GWF-(67,1,255)
        254          1        254     -0.14275235                   1_GWF-(89,1,200)  3.19843001E-04                    1_GWF-(7,1,245)
        255          1        255      -2.7905198                   1_GWF-(89,1,200)  9.85884838E-04                      1_GWF-(7,1,2)
        256          1        256       2.6374756                   1_GWF-(89,1,200)  3.24092735E-04                    1_GWF-(7,1,202)
        257          1        257      0.47500066                   1_GWF-(89,1,200)  3.73790791E-04                   1_GWF-(67,1,259)
        258          1        258      -1.0349637                   1_GWF-(90,1,167)  5.11663627E-04                  1_GWF-(48,1,2792)
        259          1        259     -0.10821895                     1_GWF-(90,1,1)  4.27868025E-04                      1_GWF-(7,1,2)
        260          1        260      0.13925487                     1_GWF-(90,1,1)  4.06090324E-04                      1_GWF-(7,1,2)
        261          1        261 -5.79169724E-02                     1_GWF-(90,1,1)  4.15012845E-04                      1_GWF-(7,1,2)
        262          1        262      0.12584014                     1_GWF-(90,1,1)  3.95001152E-04                      1_GWF-(7,1,2)
        263          1        263 -1.16590074E-02                    1_GWF-(64,1,18)  3.96704228E-04                      1_GWF-(7,1,2)
        264          1        264  4.14218942E-03                     1_GWF-(65,1,6)  3.96121498E-04                      1_GWF-(7,1,2)
        265          1        265 -1.58042499E-03                    1_GWF-(63,1,33)  3.96271271E-04                      1_GWF-(7,1,2)
        266          1        266 -7.17806897E-02                     1_GWF-(90,1,1)  4.06878574E-04                      1_GWF-(7,1,2)
        267          1        267 -6.24057039E-02                     1_GWF-(90,1,1)  4.15727223E-04                      1_GWF-(7,1,2)
        268          1        268 -9.61968215E-02                     1_GWF-(90,1,1)  4.31996256E-04                     1_GWF-(57,1,2)
        269          1        269  4.65908669E-02                     1_GWF-(90,1,1)  4.21823808E-04                      1_GWF-(7,1,2)
        270          1        270 -5.96122232E-03                     1_GWF-(90,1,1)  4.22525367E-04                      1_GWF-(7,1,2)
        271          1        271      0.17875623                     1_GWF-(90,1,1)  4.07304733E-04                     1_GWF-(57,1,2)
        272          1        272     -0.14557008                     1_GWF-(90,1,1)  4.18641462E-04                      1_GWF-(7,1,2)
        273          1        273     -0.13945512                     1_GWF-(17,1,1)  5.26964495E-04                  1_GWF-(63,1,1479)
        274          1        274  1.15533002E-02                  1_GWF-(64,1,1449)  3.84111765E-04                     1_GWF-(57,1,2)
        275          1        275 -3.43097519E-02                   1_GWF-(65,1,169)  3.57560514E-04                      1_GWF-(7,1,2)
        276          1        276 -2.44268497E-03                    1_GWF-(63,1,13)  3.57552034E-04                      1_GWF-(7,1,2)
        277          1        277     -0.15681986                     1_GWF-(88,1,1)  3.64200185E-04                      1_GWF-(7,1,2)
        278          1        278      0.79228859                     1_GWF-(88,1,1)  3.30616157E-04                      1_GWF-(7,1,2)
        279          1        279     -0.11983801                     1_GWF-(88,1,1)  3.35699749E-04                      1_GWF-(7,1,2)
        280          1        280     -0.72913866                     1_GWF-(88,1,1)  3.66665365E-04                      1_GWF-(7,1,2)
        281          1        281      0.73508764                     1_GWF-(88,1,1)  3.35477502E-04                      1_GWF-(7,1,2)
        282          1        282 -6.03107052E-02                    1_GWF-(63,1,20)  3.38029639E-04                      1_GWF-(7,1,2)
        283          1        283 -7.91391580E-02                     1_GWF-(89,1,1)  3.41320681E-04                      1_GWF-(7,1,2)
        284          1        284     -0.44249073                     1_GWF-(89,1,1)  3.59701028E-04                      1_GWF-(7,1,2)
        285          1        285      0.60617681                     1_GWF-(89,1,1)  3.34667645E-04                      1_GWF-(7,1,2)
        286          1        286     -0.85435452                     1_GWF-(88,1,1)  3.70447672E-04                     1_GWF-(56,1,2)
        287          1        287 -4.90377668E-02                     1_GWF-(64,1,7)  3.67686416E-04                      1_GWF-(7,1,2)
        288          1        288 -3.43815189E-03                     1_GWF-(64,1,8)  3.67675551E-04                      1_GWF-(7,1,2)
        289          1        289 -8.96496137E-04                     1_GWF-(64,1,6)  3.67703268E-04                      1_GWF-(7,1,2)
        290          1        290 -1.76876614E-02                     1_GWF-(89,1,1)  3.68510002E-04                      1_GWF-(7,1,2)
        291          1        291  1.62345997E-02                     1_GWF-(89,1,1)  3.67766700E-04                      1_GWF-(7,1,2)
        292          1        292  5.56175146E-02                     1_GWF-(89,1,1)  3.64925472E-04                      1_GWF-(7,1,2)
        293          1        293  5.83464216E-03                    1_GWF-(64,1,38)  3.64614166E-04                      1_GWF-(7,1,2)
        294          1        294  1.76091793E-03                    1_GWF-(64,1,41)  3.64563012E-04                      1_GWF-(7,1,2)
        295          1        295 -6.95749105E-03                     1_GWF-(63,1,9)  3.63987401E-04                     1_GWF-(58,1,2)
        296          1        296 -3.11883756E-03                    1_GWF-(62,1,12)  3.63844089E-04                      1_GWF-(7,1,2)
        297          1        297  4.22912369E-03                   1_GWF-(64,1,195)  3.63974923E-04                      1_GWF-(7,1,2)
        298          1        298 -1.21674831E-02                     1_GWF-(86,1,1)  3.63472230E-04                      1_GWF-(7,1,2)
        299          1        299 -4.84027908E-02                     1_GWF-(86,1,1)  3.61522549E-04                      1_GWF-(7,1,2)
        300          1        300     -0.36875064                     1_GWF-(86,1,1)  3.46581814E-04                      1_GWF-(7,1,2)
        301          2          1 -9.25760280E-03                    1_GWF-(63,1,13) -1.19126183E-02                      1_GWF-(7,1,1)
        302          2          2 -3.12893820E-03                    1_GWF-(63,1,20)  6.02663740E-03                  1_GWF-(18,1,3574)
        303          2          3 -4.36131005E-03                    1_GWF-(63,1,20)  1.82849797E-02                      1_GWF-(7,1,1)
        304          2          4 -4.38066459E-02                    1_GWF-(63,1,17)  1.97909771E-02                      1_GWF-(7,1,1)
        305          2          5  1.81976644E-02                    1_GWF-(64,1,19)  2.92180572E-02                      1_GWF-(7,1,1)
        306          2          6 -4.44232918E-02                     1_GWF-(64,1,8)  2.51735761E-02                      1_GWF-(7,1,1)
        307          2          7      0.17756189                    1_GWF-(64,1,10)  1.21561786E-02                    1_GWF-(64,1,11)
        308          2          8     -0.12744530                     1_GWF-(64,1,9) -7.83112660E-03                  1_GWF-(14,1,1243)
        309          2          9 -3.38739411E-02                     1_GWF-(64,1,8) -8.79932515E-03                  1_GWF-(14,1,1244)
        310          2         10  9.76746868E-02                    1_GWF-(64,1,17)  8.74579326E-03                    1_GWF-(64,1,17)
        311          2         11     -0.15649826                    1_GWF-(64,1,15) -8.70331435E-03                  1_GWF-(14,1,1247)
        312          2         12      0.14835460                    1_GWF-(64,1,19)  9.57589004E-03                    1_GWF-(64,1,22)
        313          2         13 -4.13103842E-02                   1_GWF-(22,1,113)  8.72654321E-03                    1_GWF-(64,1,23)
        314          2         14 -7.79771292E-02                    1_GWF-(64,1,13) -7.20233700E-03                  1_GWF-(14,1,1253)
        315          2         15     -0.14766854                    1_GWF-(64,1,22) -6.69387835E-03                  1_GWF-(14,1,1260)
        316          2         16      0.18252561                    1_GWF-(64,1,25)  1.11621573E-02                    1_GWF-(64,1,31)
        317          2         17     -0.27467486                    1_GWF-(64,1,25) -5.37375339E-03                  1_GWF-(14,1,1261)
        318          2         18 -8.45420949E-02                    1_GWF-(62,1,16) -4.83520845E-03                  1_GWF-(14,1,1265)
        319          2         19     -0.22504672                    1_GWF-(64,1,27) -6.01469806E-03                    1_GWF-(64,1,35)
        320          2         20      0.13415367                    1_GWF-(64,1,27) -4.25338679E-03                  1_GWF-(14,1,1260)
        321          2         21     -0.17532443                    1_GWF-(62,1,13)  1.07746385E-02                    1_GWF-(64,1,20)
        322          2         22     -0.23630686                    1_GWF-(64,1,18) -3.34518477E-03                  1_GWF-(14,1,1248)
        323          2         23 -3.05379976E-02                    1_GWF-(63,1,24) -3.14930833E-03                  1_GWF-(14,1,1248)
        324          2         24 -7.34227188E-02                    1_GWF-(64,1,10) -2.87801932E-03                  1_GWF-(14,1,1251)
        325          2         25  6.45332244E-02                      1_GWF-(8,1,1) -3.38121487E-03                  1_GWF-(14,1,1249)
        326          2         26     -0.12996099                     1_GWF-(32,1,2)  2.99608722E-03                    1_GWF-(64,1,12)
        327          2         27     -0.12369122                    1_GWF-(64,1,13) -2.41150876E-03                  1_GWF-(14,1,1242)
        328          2         28  7.02729219E-02                    1_GWF-(64,1,15) -2.25792373E-03                  1_GWF-(14,1,1249)
        329          2         29 -5.02502422E-02                    1_GWF-(62,1,17)  2.22674582E-03                    1_GWF-(64,1,23)
        330          2         30 -6.79722048E-02                    1_GWF-(64,1,18) -1.78969964E-03                  1_GWF-(29,1,1244)
        331          2         31 -3.74322014E-02                    1_GWF-(63,1,48)  2.33756743E-03                    1_GWF-(64,1,23)
        332          2         32 -9.34068855E-02                    1_GWF-(64,1,19)  1.33429478E-03                  1_GWF-(56,1,1092)
        333          2         33  3.49046279E-02                    1_GWF-(64,1,17) -1.31961203E-03                  1_GWF-(14,1,1252)
        334          2         34 -3.54674686E-02                      1_GWF-(9,1,1)  1.07905650E-03                  1_GWF-(58,1,1089)
        335          2         35 -2.22985522E-02                    1_GWF-(64,1,18)  9.53064901E-04                  1_GWF-(13,1,1040)
        336          2         36 -2.07919678E-02                    1_GWF-(62,1,13)  8.70930198E-04                  1_GWF-(13,1,1038)
        337          2         37 -2.10821565E-02                    1_GWF-(64,1,21)  8.24474064E-04                  1_GWF-(13,1,1040)
        338          2         38 -1.04427306E-02                     1_GWF-(32,1,2)  7.70568681E-04                  1_GWF-(13,1,1045)
        339          2         39 -5.71225076E-03                     1_GWF-(33,1,2)  7.62324963E-04                  1_GWF-(15,1,1522)
        340          2         40 -1.53106450E-02                    1_GWF-(62,1,15)  7.23366760E-04                    1_GWF-(64,1,32)
        341          2         41 -4.50741073E-02                    1_GWF-(64,1,22)  7.47573809E-04                   1_GWF-(13,1,979)
        342          2         42  3.37191951E-02                    1_GWF-(62,1,75) -7.20344292E-04                    1_GWF-(63,1,51)
        343          2         43 -1.46681281E-02                    1_GWF-(64,1,18)  6.95997977E-04                   1_GWF-(13,1,994)
        344          2         44 -6.04609024E-03                    1_GWF-(63,1,53)  6.94244211E-04                   1_GWF-(13,1,991)
        345          2         45 -5.83808490E-03                    1_GWF-(64,1,24)  6.92710460E-04                   1_GWF-(13,1,987)
        346          2         46 -7.40690642E-03                    1_GWF-(64,1,20)  6.90943528E-04                   1_GWF-(13,1,981)
        347          2         47 -1.10365305E-02                     1_GWF-(11,1,1)  6.86232764E-04                   1_GWF-(13,1,974)
        348          2         48  1.28543953E-02                    1_GWF-(64,1,19)  6.63950504E-04                   1_GWF-(13,1,972)
        349          2         49 -1.48454697E-02                    1_GWF-(64,1,19)  6.57789023E-04                   1_GWF-(13,1,967)
        350          2         50 -5.46724811E-03                     1_GWF-(24,1,1)  6.51659435E-04                   1_GWF-(13,1,965)
        351          2         51 -5.17277510E-03                     1_GWF-(25,1,1)  6.45330529E-04                   1_GWF-(13,1,961)
        352          2         52 -7.12399086E-03                     1_GWF-(26,1,1)  6.36385787E-04                   1_GWF-(13,1,955)
        353          2         53 -4.72725413E-03                    1_GWF-(62,1,16)  6.27170530E-04                   1_GWF-(13,1,952)
        354          2         54 -1.20264283E-02                    1_GWF-(64,1,27)  6.16273526E-04                   1_GWF-(12,1,936)
        355          2         55  2.40237099E-03                    1_GWF-(64,1,29)  6.13809300E-04                   1_GWF-(12,1,936)
        356          2         56 -1.18973056E-02                     1_GWF-(37,1,1)  6.03899363E-04                   1_GWF-(12,1,927)
        357          2         57 -7.52554115E-03                     1_GWF-(40,1,1)  5.95815102E-04                   1_GWF-(12,1,921)
        358          2         58 -6.44983083E-03                     1_GWF-(38,1,1)  5.90224453E-04                   1_GWF-(12,1,917)
        359          2         59  1.96046663E-03                   1_GWF-(63,1,447)  5.88312774E-04                   1_GWF-(12,1,918)
        360          2         60 -8.43003839E-03                     1_GWF-(37,1,1)  5.78231577E-04                   1_GWF-(12,1,915)
        361          2         61 -4.49636654E-03                     1_GWF-(36,1,1)  5.71222742E-04                   1_GWF-(12,1,914)
        362          2         62 -5.30774435E-03                   1_GWF-(63,1,338)  5.59346589E-04                   1_GWF-(12,1,910)
        363          2         63 -5.02535875E-03                   1_GWF-(64,1,303)  5.51000744E-04                   1_GWF-(12,1,905)
        364          2         64 -5.47522345E-03                   1_GWF-(63,1,339)  5.39622185E-04                   1_GWF-(12,1,899)
        365          2         65 -5.16879837E-03                   1_GWF-(64,1,304)  5.30936960E-04                   1_GWF-(12,1,894)
        366          2         66 -6.28777942E-03                   1_GWF-(63,1,339)  5.17368075E-04                   1_GWF-(12,1,890)
        367          2         67 -6.38847684E-03                   1_GWF-(64,1,304)  5.08776627E-04                   1_GWF-(12,1,885)
        368          2         68 -4.48444687E-03                   1_GWF-(63,1,339)  4.99326468E-04                   1_GWF-(12,1,880)
        369          2         69 -2.87260044E-03                   1_GWF-(64,1,303)  4.93322344E-04                   1_GWF-(12,1,877)
        370          2         70 -1.26648585E-02                   1_GWF-(64,1,303)  4.59288202E-04                   1_GWF-(63,1,336)
        371          2         71  9.51215888E-03                   1_GWF-(64,1,304)  4.60186921E-04                   1_GWF-(12,1,872)
        372          2         72 -3.57530985E-02                   1_GWF-(17,1,866)  3.65521633E-04                   1_GWF-(11,1,742)
        373          2         73 -8.05178101E-03                    1_GWF-(64,1,20)  3.57877883E-04                   1_GWF-(11,1,738)
        374          2         74 -4.73992717E-03                   1_GWF-(15,1,795)  3.49853614E-04                   1_GWF-(11,1,732)
        375          2         75 -5.92082881E-03                   1_GWF-(19,1,792)  3.40344755E-04                   1_GWF-(11,1,725)
        376          2         76 -3.89645828E-03                   1_GWF-(26,1,776)  3.31516553E-04                   1_GWF-(11,1,723)
        377          2         77 -2.96491142E-02                   1_GWF-(15,1,790)  3.08250664E-04                   1_GWF-(11,1,682)
        378          2         78  1.83298884E-02                   1_GWF-(14,1,792)  3.14386730E-04                   1_GWF-(11,1,720)
        379          2         79 -1.06879504E-02                   1_GWF-(14,1,789)  3.04110047E-04                   1_GWF-(11,1,697)
        380          2         80 -1.34054094E-02                   1_GWF-(14,1,788)  3.02858209E-04                  1_GWF-(14,1,1223)
        381          2         81  9.14275520E-04                  1_GWF-(64,1,1306)  3.02231056E-04                  1_GWF-(14,1,1223)
        382          2         82 -1.25875956E-02                   1_GWF-(14,1,787)  3.21694156E-04                  1_GWF-(14,1,1225)
        383          2         83 -1.15444839E-02                   1_GWF-(15,1,787)  3.39772982E-04                  1_GWF-(14,1,1227)
        384          2         84 -1.31268260E-02                   1_GWF-(15,1,787)  3.58855690E-04                  1_GWF-(14,1,1228)
        385          2         85  5.42188675E-02                   1_GWF-(15,1,787)  3.11738440E-04                   1_GWF-(11,1,689)
        386          2         86 -7.17911712E-02                   1_GWF-(16,1,791)  3.27133130E-04                  1_GWF-(14,1,1226)
        387          2         87 -1.50328105E-02                   1_GWF-(62,1,718)  3.41180347E-04                  1_GWF-(14,1,1227)
        388          2         88 -1.16828303E-02                   1_GWF-(15,1,793)  3.38756088E-04                  1_GWF-(14,1,1227)
        389          2         89 -1.27341511E-02                    1_GWF-(64,1,34)  3.49453050E-04                  1_GWF-(14,1,1228)
        390          2         90 -2.02701003E-02                   1_GWF-(17,1,799)  3.65126259E-04                  1_GWF-(14,1,1230)
        391          2         91 -1.73424892E-02                   1_GWF-(17,1,799)  3.77272144E-04                  1_GWF-(14,1,1231)
        392          2         92  1.14079599E-03                   1_GWF-(63,1,738)  3.76492780E-04                  1_GWF-(14,1,1231)
        393          2         93 -2.75871059E-02                   1_GWF-(17,1,799)  3.93016972E-04                  1_GWF-(14,1,1232)
        394          2         94 -1.17742622E-02                   1_GWF-(17,1,798)  3.99209891E-04                  1_GWF-(14,1,1233)
        395          2         95 -1.50242851E-02                   1_GWF-(15,1,786)  3.93132600E-04                  1_GWF-(14,1,1231)
        396          2         96      0.12805395                   1_GWF-(17,1,797)  3.37965357E-04                  1_GWF-(14,1,1226)
        397          2         97     -0.18835279                   1_GWF-(14,1,726)  2.84699202E-04                  1_GWF-(13,1,1133)
        398          2         98 -1.13158560E-02                    1_GWF-(64,1,17)  2.80959315E-04                  1_GWF-(13,1,1133)
        399          2         99  3.25094446E-03                   1_GWF-(11,1,781)  2.83649252E-04                  1_GWF-(13,1,1133)
        400          2        100  2.63746911E-02                   1_GWF-(12,1,781)  2.95118354E-04                  1_GWF-(13,1,1134)
        401          2        101 -8.12200257E-02                   1_GWF-(12,1,776)  2.69887799E-04                  1_GWF-(35,1,1100)
        402          2        102 -2.87059216E-02                   1_GWF-(32,1,773)  2.74759973E-04                  1_GWF-(14,1,1137)
        403          2        103  3.07398261E-03                   1_GWF-(62,1,552)  2.63541041E-04                  1_GWF-(14,1,1145)
        404          2        104 -3.07753767E-02                   1_GWF-(28,1,770)  2.64291530E-04                  1_GWF-(14,1,1140)
        405          2        105 -1.82506577E-02                   1_GWF-(13,1,767)  2.59146209E-04                  1_GWF-(14,1,1145)
        406          2        106 -1.63020992E-02                   1_GWF-(14,1,767)  2.58240683E-04                  1_GWF-(14,1,1203)
        407          2        107 -3.04287615E-02                   1_GWF-(13,1,766)  2.70299383E-04                  1_GWF-(14,1,1215)
        408          2        108 -1.54490740E-02                   1_GWF-(13,1,764)  2.75179581E-04                  1_GWF-(14,1,1218)
        409          2        109 -1.65429903E-02                   1_GWF-(11,1,737)  2.67171325E-04                  1_GWF-(14,1,1180)
        410          2        110  2.09112403E-03                   1_GWF-(64,1,256)  2.66527960E-04                  1_GWF-(14,1,1182)
        411          2        111 -2.93096195E-02                   1_GWF-(27,1,758)  2.74104355E-04                  1_GWF-(14,1,1241)
        412          2        112 -6.53411845E-03                   1_GWF-(15,1,752)  2.76147770E-04                  1_GWF-(14,1,1238)
        413          2        113 -1.94987443E-02                   1_GWF-(16,1,752)  2.81818971E-04                  1_GWF-(14,1,1232)
        414          2        114  9.48894165E-04                   1_GWF-(64,1,262)  2.81280594E-04                  1_GWF-(14,1,1233)
        415          2        115 -2.54096451E-02                   1_GWF-(16,1,744)  2.84339160E-04                  1_GWF-(14,1,1236)
        416          2        116 -1.15478873E-03                   1_GWF-(63,1,278)  2.84176336E-04                  1_GWF-(14,1,1236)
        417          2        117 -2.67959363E-02                   1_GWF-(18,1,742)  2.86744093E-04                  1_GWF-(14,1,1241)
        418          2        118 -2.42775878E-02                   1_GWF-(18,1,738)  2.88303447E-04                  1_GWF-(14,1,1247)
        419          2        119 -2.27789735E-02                  1_GWF-(12,1,1248)  2.66650132E-04                  1_GWF-(14,1,1367)
        420          2        120 -7.09030592E-03                   1_GWF-(63,1,319)  2.68339089E-04                  1_GWF-(14,1,1367)
        421          2        121 -2.66311271E-02                   1_GWF-(34,1,679)  2.42670253E-04                  1_GWF-(36,1,1381)
        422          2        122 -8.94847965E-03                   1_GWF-(32,1,760)  2.40284493E-04                  1_GWF-(36,1,1384)
        423          2        123 -1.57937857E-02                   1_GWF-(32,1,759)  2.38151941E-04                  1_GWF-(14,1,1369)
        424          2        124  4.70959324E-03                   1_GWF-(32,1,760)  2.37485748E-04                  1_GWF-(36,1,1391)
        425          2        125 -2.87546058E-02                   1_GWF-(13,1,745)  2.58451742E-04                  1_GWF-(15,1,1728)
        426          2        126  2.44929003E-03                   1_GWF-(63,1,607)  2.59344753E-04                  1_GWF-(15,1,1728)
        427          2        127  1.48770209E-02                   1_GWF-(11,1,720)  2.65835044E-04                  1_GWF-(58,1,1411)
        428          2        128 -3.19043289E-02                   1_GWF-(11,1,720)  2.55808887E-04                  1_GWF-(15,1,1725)
        429          2        129 -2.25224170E-02                   1_GWF-(11,1,720)  2.46615402E-04                  1_GWF-(36,1,1382)
        430          2        130 -8.88975124E-03                     1_GWF-(90,1,1)  2.39046445E-04                  1_GWF-(67,1,1624)
        431          2        131       3.6925394                   1_GWF-(19,1,720) -2.00163966E-03                     1_GWF-(55,1,2)
        432          2        132      -3.7185683                   1_GWF-(19,1,720)  2.56941317E-04                  1_GWF-(15,1,1374)
        433          2        133  7.74878834E-03                     1_GWF-(65,1,9)  2.53235962E-04                  1_GWF-(15,1,1375)
        434          2        134 -1.25915516E-02                    1_GWF-(65,1,10)  2.44320466E-04                  1_GWF-(67,1,1596)
        435          2        135 -1.36808889E-02                     1_GWF-(89,1,1)  2.47276143E-04                  1_GWF-(67,1,1594)
        436          2        136 -1.72862002E-02                     1_GWF-(89,1,1)  2.51030131E-04                  1_GWF-(67,1,1588)
        437          2        137  1.23723238E-02                     1_GWF-(89,1,1)  2.48454146E-04                  1_GWF-(67,1,1595)
        438          2        138 -2.40029047E-02                     1_GWF-(90,1,1)  2.53184527E-04                  1_GWF-(67,1,1578)
        439          2        139 -4.31995560E-03                   1_GWF-(63,1,267)  2.54123436E-04                  1_GWF-(67,1,1580)
        440          2        140 -1.22030505E-02                     1_GWF-(89,1,1)  2.56462937E-04                  1_GWF-(67,1,1576)
        441          2        141 -8.27069565E-03                     1_GWF-(90,1,1)  2.58034149E-04                  1_GWF-(67,1,1575)
        442          2        142  4.76363381E-03                     1_GWF-(90,1,1)  2.57423919E-04                  1_GWF-(67,1,1572)
        443          2        143 -1.99986120E-02                   1_GWF-(64,1,221)  2.61903957E-04                  1_GWF-(67,1,1558)
        444          2        144 -6.19951689E-03                   1_GWF-(63,1,274)  2.61438273E-04                  1_GWF-(67,1,1566)
        445          2        145 -2.46575962E-02                     1_GWF-(90,1,1)  2.66733670E-04                  1_GWF-(67,1,1554)
        446          2        146  1.10920448E-02                     1_GWF-(90,1,1)  2.63790835E-04                  1_GWF-(67,1,1557)
        447          2        147 -1.58826980E-03                   1_GWF-(65,1,138)  2.64234080E-04                  1_GWF-(67,1,1557)
        448          2        148 -3.49282216E-03                     1_GWF-(90,1,1)  2.64747150E-04                  1_GWF-(67,1,1554)
        449          2        149     -0.10793274                     1_GWF-(90,1,1)  3.04682036E-04                  1_GWF-(15,1,1579)
        450          2        150  9.75322854E-02                     1_GWF-(90,1,1)  2.66219915E-04                  1_GWF-(67,1,1539)
        451          2        151 -6.72384384E-03                     1_GWF-(90,1,1)  2.67430660E-04                  1_GWF-(67,1,1548)
        452          2        152  1.44783165E-03                   1_GWF-(63,1,611)  2.67212916E-04                  1_GWF-(67,1,1550)
        453          2        153 -1.07466044E-02                   1_GWF-(65,1,191)  2.68433424E-04                  1_GWF-(67,1,1542)
        454          2        154 -5.90926662E-03                   1_GWF-(64,1,248)  2.68902504E-04                  1_GWF-(67,1,1533)
        455          2        155 -3.59940047E-03                   1_GWF-(63,1,308)  2.69704747E-04                  1_GWF-(67,1,1548)
        456          2        156  5.25584326E-04                   1_GWF-(63,1,310)  2.69393468E-04                  1_GWF-(67,1,1541)
        457          2        157 -1.51015021E-02                   1_GWF-(28,1,455)  2.71908030E-04                  1_GWF-(15,1,1592)
        458          2        158 -2.76909938E-03                   1_GWF-(63,1,404)  2.72552612E-04                  1_GWF-(15,1,1599)
        459          2        159 -2.21378346E-02                   1_GWF-(29,1,444)  2.78937845E-04                  1_GWF-(15,1,1604)
        460          2        160  2.13628518E-03                   1_GWF-(63,1,267)  2.78987981E-04                  1_GWF-(15,1,1614)
        461          2        161 -8.88824994E-03                   1_GWF-(63,1,271)  2.80412856E-04                  1_GWF-(15,1,1614)
        462          2        162 -1.58075156E-02                  1_GWF-(23,1,1602) -3.57428909E-04                  1_GWF-(19,1,3382)
        463          2        163 -1.50212819E-03                  1_GWF-(64,1,1482)  2.86400318E-04                  1_GWF-(15,1,1540)
        464          2        164 -2.95643366E-02                   1_GWF-(64,1,359)  2.79460881E-04                  1_GWF-(15,1,1635)
        465          2        165  7.48445350E-03                   1_GWF-(64,1,283)  2.71970221E-04                  1_GWF-(15,1,1647)
        466          2        166 -5.16450958E-03                   1_GWF-(65,1,273)  2.72679352E-04                  1_GWF-(15,1,1672)
        467          2        167 -7.22008656E-03                   1_GWF-(64,1,281)  2.72766933E-04                  1_GWF-(15,1,1678)
        468          2        168 -1.09551258E-02                   1_GWF-(37,1,437)  2.74067724E-04                  1_GWF-(15,1,1659)
[...]
        319         15          4 -1.17888990E-04                    1_GWF-(64,1,30)  6.34124110E-05                  1_GWF-(21,1,1024)
        320         15          5 -5.31955516E-05                    1_GWF-(63,1,20)  6.00743874E-05                  1_GWF-(21,1,1024)
        321         15          6 -1.32892589E-04                    1_GWF-(64,1,10)  1.91067536E-05                  1_GWF-(21,1,1024)
        322         15          7 -7.57544820E-05                    1_GWF-(63,1,24)  7.26557888E-06                  1_GWF-(22,1,2798)
        323         15          8 -1.39613377E-05                    1_GWF-(63,1,22)  6.64676683E-06                  1_GWF-(22,1,2799)
        324         15          9 -1.13459907E-05                  1_GWF-(85,1,3809)  5.42044841E-06                  1_GWF-(22,1,2799)
        325         15         10  5.86291990E-05                    1_GWF-(64,1,11) -4.05366274E-06                  1_GWF-(21,1,1024)
        326         15         11 -7.30835385E-05                    1_GWF-(64,1,10) -4.59167665E-06                    1_GWF-(64,1,12)
        327         15         12 -4.78347203E-05                    1_GWF-(63,1,24) -1.66067660E-06                    1_GWF-(64,1,12)
        328         15         13 -1.52315985E-05                    1_GWF-(63,1,24)  1.13493835E-06                  1_GWF-(43,1,2792)
        329         15         14 -3.57222753E-06                  1_GWF-(85,1,3819)  9.72673255E-07                  1_GWF-(44,1,2791)
        330         16          1  1.51464339E-05                    1_GWF-(63,1,19)  8.38387303E-05                     1_GWF-(18,1,1)
        331         16          2 -2.70514436E-05                    1_GWF-(64,1,10)  4.54800811E-05                     1_GWF-(18,1,1)
        332         16          3 -1.46050120E-04                    1_GWF-(64,1,10)  4.55896292E-05                     1_GWF-(20,1,3)
        333         16          4  1.23031576E-04                    1_GWF-(64,1,10)  8.87798329E-06                     1_GWF-(19,1,2)
        334         16          5  6.45043652E-05                    1_GWF-(64,1,10)  4.54475625E-06                     1_GWF-(19,1,2)
        335         16          6  3.05288506E-06                    1_GWF-(63,1,17) -5.04579706E-06                     1_GWF-(18,1,1)
        336         17          1 -1.76884561E-05                    1_GWF-(64,1,11)  1.17438757E-05                     1_GWF-(18,1,1)
        337         17          2  2.46792970E-05                    1_GWF-(64,1,10)  1.56623935E-05                     1_GWF-(18,1,1)
        338         17          3 -6.04819272E-06                    1_GWF-(63,1,20)  9.72382073E-06                     1_GWF-(18,1,1)
        339         18          1 -2.65216835E-05                    1_GWF-(64,1,10) -3.05883556E-05                     1_GWF-(18,1,1)
        340         18          2 -1.65076228E-05                    1_GWF-(64,1,10) -1.77314654E-05                     1_GWF-(18,1,1)
        341         18          3  2.69197686E-05                    1_GWF-(64,1,10) -6.26170952E-06                     1_GWF-(20,1,4)
        342         18          4 -9.54177693E-06                    1_GWF-(64,1,10)  9.41091451E-06                     1_GWF-(18,1,1)
        343         19          1  2.48139395E-05                    1_GWF-(64,1,10) -9.43367221E-06                     1_GWF-(18,1,1)
        344         19          2 -3.37649148E-06                  1_GWF-(20,1,2801) -2.41853207E-05                     1_GWF-(18,1,1)
        345         20          1 -2.25807212E-05                    1_GWF-(64,1,10)  2.01265168E-05                     1_GWF-(18,1,1)
        346         20          2  3.56131226E-06                  1_GWF-(64,1,2561)  3.87919858E-05                     1_GWF-(18,1,1)
        347         21          1  2.32103236E-05                    1_GWF-(64,1,10) -1.29854194E-05                     1_GWF-(18,1,1)
        348         21          2 -7.61113812E-06                    1_GWF-(64,1,11) -3.57979318E-06                     1_GWF-(18,1,1)
        349         22          1 -7.66511240E-05                    1_GWF-(64,1,10)  1.38426541E-05                     1_GWF-(18,1,1)
        350         22          2 -5.47993265E-05                    1_GWF-(64,1,10)  4.92659924E-05                     1_GWF-(18,1,1)
        351         22          3 -1.01205671E-04                    1_GWF-(64,1,10)  6.46733935E-05                     1_GWF-(18,1,1)
        352         22          4 -1.74931983E-04                    1_GWF-(63,1,23)  9.21457542E-05                     1_GWF-(18,1,1)
        353         22          5 -5.61891418E-05                    1_GWF-(64,1,10)  5.97942211E-05                     1_GWF-(18,1,1)
        354         22          6 -5.96181082E-05                   1_GWF-(65,1,177)  1.58550939E-05                     1_GWF-(18,1,1)
        355         22          7 -5.21381555E-05                    1_GWF-(63,1,25) -3.76816896E-06                  1_GWF-(22,1,2800)
        356         22          8 -3.68376719E-05                     1_GWF-(64,1,9) -2.79554414E-06                    1_GWF-(64,1,11)
        357         22          9 -4.10022800E-05                    1_GWF-(63,1,22) -1.90901936E-06                  1_GWF-(22,1,2800)
        358         22         10 -7.07575174E-06                   1_GWF-(86,1,644) -1.51957270E-06                  1_GWF-(80,1,2859)
        359         23          1 -1.72566542E-05                     1_GWF-(64,1,8) -1.17159451E-04                  1_GWF-(21,1,1024)
        360         23          2 -8.16287040E-06                     1_GWF-(64,1,9) -1.15800301E-04                  1_GWF-(21,1,1024)
        361         24          1 -1.47696253E-05                  1_GWF-(63,1,1779) -1.20449474E-05                     1_GWF-(19,1,2)
        362         24          2 -1.21324899E-05                    1_GWF-(64,1,10)  1.69449981E-05                  1_GWF-(21,1,1024)
        363         24          3 -3.12237129E-04                    1_GWF-(64,1,10) -5.46533919E-05                   1_GWF-(21,1,408)
        364         24          4 -1.17345109E-04                    1_GWF-(63,1,22) -3.82347909E-05                     1_GWF-(19,1,2)
        365         24          5 -1.34534052E-04                    1_GWF-(63,1,22) -1.50720677E-05                     1_GWF-(19,1,2)
        366         24          6 -6.49366575E-05                    1_GWF-(63,1,18) -5.25653272E-06                  1_GWF-(22,1,1024)
        367         24          7 -2.78332664E-06                    1_GWF-(63,1,25) -2.56995179E-06                  1_GWF-(22,1,1024)
        368         25          1  2.70804783E-05                     1_GWF-(63,1,8)  3.13826041E-05                     1_GWF-(18,1,1)
        369         25          2 -8.20242962E-06                  1_GWF-(63,1,1394)  2.50924656E-05                     1_GWF-(18,1,1)
        370         26          1 -5.61160571E-05                    1_GWF-(64,1,10)  2.26958228E-05                     1_GWF-(20,1,2)
        371         26          2  1.83520675E-05                    1_GWF-(64,1,10) -3.01050897E-05                     1_GWF-(18,1,1)
        372         26          3 -4.78419995E-06                    1_GWF-(63,1,24) -3.00285780E-05                     1_GWF-(18,1,1)
        373         27          1  4.65664485E-05                    1_GWF-(64,1,10) -4.16348189E-06                     1_GWF-(20,1,2)
        374         27          2  2.99835881E-06                     1_GWF-(18,1,1)  5.28922914E-05                     1_GWF-(18,1,1)
        375         28          1 -1.64187737E-05                    1_GWF-(64,1,10) -1.26672053E-05                     1_GWF-(18,1,1)
        376         28          2 -7.21160912E-06                  1_GWF-(63,1,1494) -4.97057955E-05                     1_GWF-(18,1,1)
        377         29          1 -5.97394400E-06                  1_GWF-(63,1,1396)  3.56274473E-05                     1_GWF-(18,1,1)
 --------------------------------------------------------------------------------------------------------------------------------------



 SLN_2 OUTER ITERATION SUMMARY
 ----------------------------------------------------------------------------------------------------------
                                OUTER      INNER                    STEP   MAXIMUM CHANGE MODEL-(CELLID) OR
 OUTER ITERATION STEP       ITERATION  ITERATION  MAXIMUM CHANGE SUCCESS             MODEL-PACKAGE-(NUMBER)
 ----------------------------------------------------------------------------------------------------------
 Model                              1         36      0.56464344                          2_GWT-(43,1,3856)
 Model                              2          6 -7.96130146E-03                          2_GWT-(21,1,3947)
 Model                              3          7 -3.70797992E-03                          2_GWT-(48,1,2265)
 Model                              4          2 -3.17245228E-03                          2_GWT-(48,1,2170)
 Model                              5          7 -2.98849858E-03                          2_GWT-(48,1,2086)
 Model                              6          4 -1.96437492E-03                          2_GWT-(48,1,1995)
 Model                              7          2 -1.10151893E-03                          2_GWT-(44,1,1949)
 Model                              8          2 -9.03359490E-04       *                  2_GWT-(44,1,1918)
 ----------------------------------------------------------------------------------------------------------


 8 CALLS TO NUMERICAL SOLUTION IN TIME STEP 25 STRESS PERIOD 1
 66 TOTAL ITERATIONS

 SLN_2 INNER ITERATION SUMMARY
 --------------------------------------------------------------------------------------------------------------------------------------
      TOTAL      OUTER      INNER                                                            MAXIMUM                                   
  ITERATION  ITERATION  ITERATION  MAXIMUM CHANGE      MAXIMUM CHANGE MODEL-(CELLID)        RESIDUAL    MAXIMUM RESIDUAL MODEL-(CELLID)
 --------------------------------------------------------------------------------------------------------------------------------------
          1          1          1      0.27270100                  2_GWT-(46,1,3854)  5.30879936E-03                  2_GWT-(30,1,4000)
          2          1          2     -0.18471815                  2_GWT-(21,1,3921)  2.69611133E-03                  2_GWT-(30,1,4000)
          3          1          3     -0.16438825                  2_GWT-(21,1,3934)  2.68525331E-03                  2_GWT-(21,1,3998)
          4          1          4     -0.15666355                  2_GWT-(21,1,3953)  1.14007525E-03                  2_GWT-(22,1,3999)
          5          1          5  5.35128197E-02                  2_GWT-(20,1,3918)  7.05985338E-04                  2_GWT-(21,1,4000)
          6          1          6     -0.44086248                  2_GWT-(21,1,3977)  2.30762010E-03                  2_GWT-(56,1,1801)
          7          1          7      0.54668811                  2_GWT-(21,1,3978)  1.09528161E-03                  2_GWT-(22,1,3999)
          8          1          8 -2.79063093E-02                  2_GWT-(90,1,3778)  1.30557231E-03                  2_GWT-(21,1,3998)
          9          1          9      0.10217557                  2_GWT-(21,1,3913)  2.17735416E-03                  2_GWT-(41,1,1801)
         10          1         10     -0.22156960                  2_GWT-(90,1,3790) -2.12501560E-03                  2_GWT-(55,1,1800)
         11          1         11      0.14999617                  2_GWT-(90,1,3783) -2.13231154E-03                  2_GWT-(55,1,1800)
         12          1         12      0.14052345                  2_GWT-(21,1,3919) -2.84000274E-03                  2_GWT-(55,1,1800)
         13          1         13 -2.70921976E-02                  2_GWT-(57,1,2652) -1.61711994E-03                  2_GWT-(55,1,1800)
         14          1         14 -3.25931043E-02                  2_GWT-(61,1,2645) -7.65559694E-04                  2_GWT-(75,1,2680)
         15          1         15 -1.30727169E-02                  2_GWT-(60,1,2640) -8.05577624E-04                  2_GWT-(75,1,2680)
         16          1         16  3.87412916E-02                  2_GWT-(21,1,3920) -4.75419964E-04                  2_GWT-(75,1,2680)
         17          1         17  3.38616007E-02                  2_GWT-(21,1,3920)  3.52356957E-04                  2_GWT-(60,1,2599)
         18          1         18 -1.30187684E-02                  2_GWT-(69,1,2606)  2.83133039E-04                  2_GWT-(60,1,2584)
         19          1         19 -8.45263736E-03                  2_GWT-(74,1,2596)  2.33456025E-04                  2_GWT-(60,1,2575)
         20          1         20 -1.66479060E-02                  2_GWT-(76,1,2586)  2.39683030E-04                  2_GWT-(60,1,2556)
         21          1         21 -5.48849621E-03                  2_GWT-(51,1,2543)  1.91228545E-04                  2_GWT-(60,1,2548)
         22          1         22  1.45369186E-02                  2_GWT-(90,1,2567)  3.16482327E-04                  2_GWT-(60,1,2556)
         23          1         23 -2.45636887E-02                  2_GWT-(90,1,2562)  1.11366886E-04                  2_GWT-(60,1,2530)
         24          1         24 -6.85306569E-03                  2_GWT-(52,1,2525)  1.17029537E-04                  2_GWT-(60,1,2516)
         25          1         25 -9.73918646E-02                  2_GWT-(51,1,2499) -1.28503007E-03                  2_GWT-(60,1,2525)
         26          1         26      0.15943527                  2_GWT-(51,1,2497)  1.01539436E-03                  2_GWT-(60,1,2519)
         27          1         27 -7.35642902E-02                  2_GWT-(51,1,2494)  6.85228089E-05                  2_GWT-(60,1,2486)
         28          1         28 -2.71606778E-03                  2_GWT-(52,1,2477)  5.56301184E-05                  2_GWT-(60,1,2477)
         29          1         29 -2.26229091E-02                  2_GWT-(52,1,2470)  1.88543891E-04                  2_GWT-(60,1,2442)
         30          1         30  1.61735313E-02                  2_GWT-(52,1,2472)  4.90753381E-05                  2_GWT-(60,1,2444)
         31          1         31 -2.33649403E-03                  2_GWT-(51,1,2435)  4.14048338E-05                  2_GWT-(60,1,2432)
         32          1         32 -2.28226570E-03                  2_GWT-(51,1,2427)  3.81502366E-05                  2_GWT-(60,1,2419)
         33          1         33 -1.28680246E-02                  2_GWT-(50,1,2404)  9.60859586E-05                  2_GWT-(60,1,2378)
         34          1         34  9.76053515E-02                  2_GWT-(50,1,2396)  7.74584839E-04                  2_GWT-(60,1,2421)
         35          1         35 -8.97945309E-02                  2_GWT-(50,1,2395)  2.13322779E-05                  2_GWT-(60,1,2386)
         36          1         36 -3.47854572E-04                  2_GWT-(47,1,2332)  2.13410871E-05                  2_GWT-(60,1,2396)
         37          2          1  5.06108143E-03                  2_GWT-(85,1,1251)  7.12867054E-04                  2_GWT-(85,1,1250)
         38          2          2  1.46962799E-03                  2_GWT-(21,1,4000)  1.11652394E-04                  2_GWT-(85,1,1250)
         39          2          3 -1.57262462E-03                  2_GWT-(21,1,3947)  2.82377777E-05                  2_GWT-(85,1,1251)
         40          2          4 -1.53997090E-03                  2_GWT-(21,1,3952)  1.61400563E-05                  2_GWT-(60,1,2337)
         41          2          5 -1.37192615E-03                  2_GWT-(50,1,2335)  1.64902561E-05                  2_GWT-(60,1,2320)
         42          2          6 -9.47121528E-04                  2_GWT-(49,1,2315)  1.56752648E-05                  2_GWT-(60,1,2308)
         43          3          1 -1.26250710E-03                  2_GWT-(49,1,2301) -1.31130147E-04                  2_GWT-(84,1,1250)
         44          3          2 -1.26626518E-03                  2_GWT-(49,1,2288) -1.20958232E-04                  2_GWT-(84,1,1250)
         45          3          3 -1.78178688E-03                  2_GWT-(49,1,2270) -2.91601526E-05                  2_GWT-(84,1,1250)
         46          3          4 -1.22344853E-03                  2_GWT-(48,1,2245)  1.65368965E-05                  2_GWT-(60,1,2239)
         47          3          5 -1.01635860E-03                  2_GWT-(47,1,2221)  1.37348766E-05                  2_GWT-(60,1,2223)
         48          3          6 -2.31111864E-03                  2_GWT-(47,1,2211)  1.66734101E-05                  2_GWT-(60,1,2198)
         49          3          7  8.45258565E-04                  2_GWT-(48,1,2225)  1.11313847E-05                  2_GWT-(60,1,2189)
         50          4          1 -2.68145396E-03                  2_GWT-(48,1,2178)  3.13953038E-04                  2_GWT-(85,1,1250)
         51          4          2 -9.83788668E-04                  2_GWT-(47,1,2147)  1.63545591E-04                  2_GWT-(85,1,1250)
         52          5          1 -2.89257974E-03                  2_GWT-(46,1,2131) -1.75031244E-04                  2_GWT-(85,1,1250)
         53          5          2 -1.96984660E-03                  2_GWT-(46,1,2115) -1.27748669E-04                  2_GWT-(85,1,1250)
         54          5          3  3.77044840E-03                  2_GWT-(48,1,2142)  1.35404758E-04                  2_GWT-(85,1,1250)
         55          5          4  4.28026722E-03                  2_GWT-(48,1,2131)  2.56357934E-04                  2_GWT-(40,1,1800)
         56          5          5 -7.44693869E-03                  2_GWT-(48,1,2135) -1.54628596E-04                  2_GWT-(40,1,1800)
         57          5          6  2.80681705E-03                  2_GWT-(48,1,2133)  9.71276356E-06                  2_GWT-(60,1,2058)
         58          5          7 -4.15032490E-04                  2_GWT-(45,1,2041)  9.08398162E-06                  2_GWT-(60,1,2048)
         59          6          1 -3.30168189E-03                  2_GWT-(46,1,2030) -8.03810207E-05                  2_GWT-(55,1,1799)
         60          6          2  4.43443708E-03                  2_GWT-(46,1,2040)  1.24011791E-04                  2_GWT-(40,1,1799)
         61          6          3 -1.87180371E-03                  2_GWT-(45,1,2042) -2.98858997E-05                  2_GWT-(40,1,1800)
         62          6          4 -6.12714793E-04                  2_GWT-(44,1,1976)  2.90473968E-05                  2_GWT-(40,1,1800)
         63          7          1 -1.12990691E-03                  2_GWT-(42,1,1955)  4.94765703E-05                  2_GWT-(55,1,1800)
         64          7          2  3.38079371E-04                  2_GWT-(45,1,1971)  2.76323350E-05                  2_GWT-(55,1,1800)
         65          8          1 -1.00075394E-03                  2_GWT-(42,1,1926)  7.47711517E-05                  2_GWT-(40,1,1800)
         66          8          2  4.46187603E-04                  2_GWT-(44,1,1939)  1.43085013E-05                  2_GWT-(55,1,1800)
 --------------------------------------------------------------------------------------------------------------------------------------



 MEMORY MANAGER TOTAL STORAGE BY DATA TYPE, IN MEGABYTES
 -------------------------------
                    ALLOCATED   
 DATA TYPE           MEMORY     
 -------------------------------
 Character        1.14500000E-02
 Logical          4.40000000E-05
 Integer          124.15875     
 Real             378.03035     
 -------------------------------
 Total            502.20060     
 -------------------------------


 
 Run end date and time (yyyy/mm/dd hh:mm:ss): 2023/11/08  7:02:50
 Elapsed run time: 11 Minutes,  1.564 Seconds
 Normal termination of simulation.
